вЂўвЃ   вЃ Full Wave Bridge (R-L Load)
VS 1 0 SIN(0 311V 50HZ)
R 4 5 10
L 5 0 50mH
XT1 1 3 4 SCR
XT2 0 6 4 SCR
XT3 1 7 0 SCR
XT4 0 8 0 SCR
VP1 3 4 PULSE(0 10V 2.5MS 0.1US 0.1US 0.1MS 20MS)
VP2 6 4 PULSE(0 10V 2.5MS 0.1US 0.1US 0.1MS 20MS)
VP3 7 0 PULSE(0 10V 12.5MS 0.1US 0.1US 0.1MS 20MS)
VP4 8 0 PULSE(0 10V 12.5MS 0.1US 0.1US 0.1MS 20MS)
.TRAN 0.1MS 80MS
.PROBE V(4) I(R)
.END