CONTROLLED HALF WAVE
.SUBCKT SCR 1 3 2
RG 3 4 50
VX 4 2 0V
RT 7 2 1
CT 7 2 10U
VY 5 2 0V
D 6 5 DMOD
.MODEL DMOD D(IS=2E-15 BV=1000V)
S1 1 6 7 2 SMOD
.MODEL SMOD VSWITCH(RON=0.001 ROFF=10MEG VON=0.5 VOFF=0)
F 2 7 POLY(2) VX VY 0 50 11
.ENDS SCR
VS 1 0 SIN(0 311V 50HZ)
R 2 0 10
XT1 1 3 2 SCR
VP 3 2 PULSE(0 10V 2.5MS 0.1US 0.1US 0.1MS 20MS)
.TRAN 0.1MS 80MS
.PROBE V(1) V(2) V(3,2) v(1,2) I(R)
.END