РђбРЂа  РЂа3-Phase Half Wave (R Load)
VA 1 0 SIN(0 311V 50HZ 0 0 0)
VB 2 0 SIN(0 311V 50HZ 0 0 120)
VC 3 0 SIN(0 311V 50HZ 0 0 240)
R 5 0 10
XT1 1 6 5 SCR
XT2 2 7 5 SCR
XT3 3 8 5 SCR
VP1 6 5 PULSE(0 10V 1MS 0.1US 0.1US 0.1MS 20MS)
VP2 7 5 PULSE(0 10V 7MS 0.1US 0.1US 0.1MS 20MS)
VP3 8 5 PULSE(0 10V 13MS 0.1US 0.1US 0.1MS 20MS)
.TRAN 0.1MS 80MS
.PROBE V(5) I(R)
.END